@<TRIPOS>MOLECULE
H:WFZ015a.pdb
    16    17     1     0     1
SMALL
NO_CHARGES
****
Generated from the CSD

@<TRIPOS>ATOM
     1 C02     24.4360   3.7510  26.7260   C.2       1 LIG1   0.0000
     2 C05     23.7410   2.0630  25.3060   C.ar      1 LIG1   0.0000
     3 C06     23.1810   2.9900  26.2570   C.ar      1 LIG1   0.0000
     4 C07     21.8080   2.9380  26.4510   C.ar      1 LIG1   0.0000
     5 H07     21.3603   3.6231  27.1557   H         1 LIG1   0.0000
     6 C08     20.9880   2.0490  25.7830   C.ar      1 LIG1   0.0000
     7 H08     19.9224   2.0336  25.9579   H         1 LIG1   0.0000
     8 C09     21.5880   1.1630  24.8660   C.ar      1 LIG1   0.0000
     9 C11     22.9270   1.1520  24.6150   C.ar      1 LIG1   0.0000
    10 H11     23.3513   0.4600  23.9026   H         1 LIG1   0.0000
    11 N01     24.4860   4.7700  27.6490   N.pl3     1 LIG1   0.0000
    12 H011    25.3707   5.1987  27.8806   H         1 LIG1   0.0000
    13 H012    23.6380   5.0894  28.0950   H         1 LIG1   0.0000
    14 N03     25.4690   3.2300  26.0620   N.2       1 LIG1   0.0000
    15 O04     25.1570   2.2470  25.2230   O.3       1 LIG1   0.0000
    16 BR10    20.4600  -0.1420  23.8720   Br        1 LIG1   0.0000
@<TRIPOS>BOND
     1     1     3    1
     2     2     3   ar
     3     3     4   ar
     4     4     5    1
     5     4     6   ar
     6     6     7    1
     7     6     8   ar
     8     2     9   ar
     9     8     9   ar
    10     9    10    1
    11     1    11    1
    12    11    12    1
    13    11    13    1
    14     1    14    2
    15     2    15    1
    16    14    15    1
    17     8    16    1
@<TRIPOS>SUBSTRUCTURE
     1 LIG1        1 GROUP             0 H     LIG     0  
@<TRIPOS>SET
CCDC_LIGAND STATIC ATOMS
16 1 2 3 4 5 6 7 8 9 \
10 11 12 13 14 15 16 
