A02b_1_refine_13.pdb A02
  MOE2024           3D
A02b_1_refine_13.pdb A02
 16 16  0  0  0  0  0  0  0  0999 V2000
   24.2790    4.5370   27.1860 N   0  0  0  0  0  0  0  0  0  0  0  0
   25.2550    4.7460   27.3070 H   0  0  0  0  0  0  0  0  0  0  0  0
   23.5390    5.0650   27.6140 H   0  0  0  0  0  0  0  0  0  0  0  0
   22.6500    3.2030   26.2400 N   0  0  0  0  0  0  0  0  0  0  0  0
   24.9440    2.7890   25.8360 N   0  0  0  0  0  0  0  0  0  0  0  0
   23.9460    3.4780   26.3970 C   0  0  0  0  0  0  0  0  0  0  0  0
   23.2920    1.3670   24.8250 C   0  0  0  0  0  0  0  0  0  0  0  0
   22.8680   -0.2540   23.6170 I   0  0  0  0  0  0  0  0  0  0  0  0
   21.0110    1.8280   25.2690 O   0  0  0  0  0  0  0  0  0  0  0  0
   24.5930    1.7430   25.0580 C   0  0  0  0  0  0  0  0  0  0  0  0
   25.4320    1.2090   24.6200 H   0  0  0  0  0  0  0  0  0  0  0  0
   22.3440    2.1470   25.4550 C   0  0  0  0  0  0  0  0  0  0  0  0
   20.1130    2.6850   25.9670 C   0  0  0  0  0  0  0  0  0  0  0  0
   19.0960    2.3390   25.7610 H   0  0  0  0  0  0  0  0  0  0  0  0
   20.1920    3.7180   25.6090 H   0  0  0  0  0  0  0  0  0  0  0  0
   20.2700    2.6300   27.0490 H   0  0  0  0  0  0  0  0  0  0  0  0
  1  2  1  0  0  0  0
  1  3  1  0  0  0  0
  1  6  1  0  0  0  0
  4  6  1  0  0  0  0
  4 12  2  0  0  0  0
  5  6  2  0  0  0  0
  5 10  1  0  0  0  0
  7  8  1  0  0  0  0
  7 10  2  0  0  0  0
  7 12  1  0  0  0  0
  9 12  1  0  0  0  0
  9 13  1  0  0  0  0
 10 11  1  0  0  0  0
 13 14  1  0  0  0  0
 13 15  1  0  0  0  0
 13 16  1  0  0  0  0
M  END
$$$$