A02b_1_refine_13.pdb A02
  MOE2024           3D
A02b_1_refine_13.pdb A02
 16 16  0  0  0  0  0  0  0  0999 V2000
   24.2790    4.5370   27.1860 N   0  0  0  0  0  0  0  0  0  0  0  0
   25.2550    4.7460   27.3070 H   0  0  0  0  0  0  0  0  0  0  0  0
   23.5390    5.0650   27.6140 H   0  0  0  0  0  0  0  0  0  0  0  0
   22.6500    3.2030   26.2400 N   0  0  0  0  0  0  0  0  0  0  0  0
   24.9440    2.7890   25.8360 N   0  0  0  0  0  0  0  0  0  0  0  0
   23.9460    3.4780   26.3970 C   0  0  0  0  0  0  0  0  0  0  0  0
   23.2920    1.3670   24.8250 C   0  0  0  0  0  0  0  0  0  0  0  0
   22.8680   -0.2540   23.6170 I   0  0  0  0  0  0  0  0  0  0  0  0
   21.0110    1.8280   25.2690 O   0  0  0  0  0  0  0  0  0  0  0  0
   24.5930    1.7430   25.0580 C   0  0  0  0  0  0  0  0  0  0  0  0
   25.4320    1.2090   24.6200 H   0  0  0  0  0  0  0  0  0  0  0  0
   22.3440    2.1470   25.4550 C   0  0  0  0  0  0  0  0  0  0  0  0
   20.1130    2.6850   25.9670 C   0  0  0  0  0  0  0  0  0  0  0  0
   19.0960    2.3390   25.7610 H   0  0  0  0  0  0  0  0  0  0  0  0
   20.1920    3.7180   25.6090 H   0  0  0  0  0  0  0  0  0  0  0  0
   20.2700    2.6300   27.0490 H   0  0  0  0  0  0  0  0  0  0  0  0
  1  2  1  0  0  0  0
  1  3  1  0  0  0  0
  1  6  1  0  0  0  0
  4  6  1  0  0  0  0
  4 12  2  0  0  0  0
  5  6  2  0  0  0  0
  5 10  1  0  0  0  0
  7  8  1  0  0  0  0
  7 10  2  0  0  0  0
  7 12  1  0  0  0  0
  9 12  1  0  0  0  0
  9 13  1  0  0  0  0
 10 11  1  0  0  0  0
 13 14  1  0  0  0  0
 13 15  1  0  0  0  0
 13 16  1  0  0  0  0
M  END
$$$$
A07a_2-pandda-model-coot-0.pdb LIG
  MOE2024           3D
A07a_2-pandda-model-coot-0.pdb LIG
 17 17  0  0  0  0  0  0  0  0999 V2000
   21.4560    3.6710   27.5510 O   0  0  0  0  0  0  0  0  0  0  0  0
   21.9510    2.8900   27.8560 H   0  0  0  0  0  0  0  0  0  0  0  0
   22.9710    3.0870   25.7450 C   0  0  0  0  0  0  0  0  0  0  0  0
   24.4240    4.2200   27.3200 N   0  0  0  0  0  0  0  0  0  0  0  0
   25.3740    4.3230   27.6440 H   0  0  0  0  0  0  0  0  0  0  0  0
   23.6710    4.7500   27.7300 H   0  0  0  0  0  0  0  0  0  0  0  0
   25.3310    2.6460   25.9190 N   0  0  0  0  0  0  0  0  0  0  0  0
   21.7550    3.8590   26.1720 C   0  0  0  0  0  0  0  0  0  0  0  0
   21.9010    4.9290   25.9860 H   0  0  0  0  0  0  0  0  0  0  0  0
   20.8720    3.5490   25.6030 H   0  0  0  0  0  0  0  0  0  0  0  0
   24.0000    1.4280   24.3220 C   0  0  0  0  0  0  0  0  0  0  0  0
   23.9490    0.6800   23.5400 H   0  0  0  0  0  0  0  0  0  0  0  0
   22.8700    2.1220   24.7320 C   0  0  0  0  0  0  0  0  0  0  0  0
   21.9130    1.9120   24.2590 H   0  0  0  0  0  0  0  0  0  0  0  0
   24.2290    3.3130   26.3100 C   0  0  0  0  0  0  0  0  0  0  0  0
   25.1990    1.7250   24.9400 C   0  0  0  0  0  0  0  0  0  0  0  0
   26.1160    1.2170   24.6590 H   0  0  0  0  0  0  0  0  0  0  0  0
  1  2  1  0  0  0  0
  1  8  1  0  0  0  0
  3  8  1  0  0  0  0
  3 13  2  0  0  0  0
  3 15  1  0  0  0  0
  4  5  1  0  0  0  0
  4  6  1  0  0  0  0
  4 15  1  0  0  0  0
  7 15  2  0  0  0  0
  7 16  1  0  0  0  0
  8  9  1  0  0  0  0
  8 10  1  0  0  0  0
 11 12  1  0  0  0  0
 11 13  1  0  0  0  0
 11 16  2  0  0  0  0
 13 14  1  0  0  0  0
 16 17  1  0  0  0  0
M  END
$$$$
A09a_2-pandda-model-coot-0.pdb LIG
  MOE2024           3D
A09a_2-pandda-model-coot-0.pdb LIG
 15 16  0  0  0  0  0  0  0  0999 V2000
   22.8420    3.3090   26.2080 C   0  0  0  0  0  0  0  0  0  0  0  0
   21.5050    3.6730   26.4770 C   0  0  0  0  0  0  0  0  0  0  0  0
   21.2710    4.5180   27.1160 H   0  0  0  0  0  0  0  0  0  0  0  0
   24.1330    3.8190   26.5990 C   0  0  0  0  0  0  0  0  0  0  0  0
   24.2630    4.8860   27.4080 N   0  0  0  0  0  0  0  0  0  0  0  0
   25.1910    5.2090   27.6560 H   0  0  0  0  0  0  0  0  0  0  0  0
   23.4890    5.4060   27.7980 H   0  0  0  0  0  0  0  0  0  0  0  0
   20.8270    1.8410   25.0870 C   0  0  0  0  0  0  0  0  0  0  0  0
   20.0470    1.2380   24.6260 H   0  0  0  0  0  0  0  0  0  0  0  0
   20.4860    2.9150   25.8980 C   0  0  0  0  0  0  0  0  0  0  0  0
   19.4440    3.1580   26.0770 H   0  0  0  0  0  0  0  0  0  0  0  0
   23.0260    2.2120   25.3780 C   0  0  0  0  0  0  0  0  0  0  0  0
   22.0840    1.4460   24.7940 N   0  0  0  0  0  0  0  0  0  0  0  0
   25.1980    3.1800   26.1200 N   0  0  0  0  0  0  0  0  0  0  0  0
   24.6810    1.9210   25.1650 S   0  0  0  0  0  0  0  0  0  0  0  0
  1  2  1  0  0  0  0
  1  4  1  0  0  0  0
  1 12  2  0  0  0  0
  2  3  1  0  0  0  0
  2 10  2  0  0  0  0
  4  5  1  0  0  0  0
  4 14  2  0  0  0  0
  5  6  1  0  0  0  0
  5  7  1  0  0  0  0
  8  9  1  0  0  0  0
  8 10  1  0  0  0  0
  8 13  2  0  0  0  0
 10 11  1  0  0  0  0
 12 13  1  0  0  0  0
 12 15  1  0  0  0  0
 14 15  1  0  0  0  0
M  END
$$$$
B01a_2_pandda-model-coot-0.pdb LIG
  MOE2024           3D
B01a_2_pandda-model-coot-0.pdb LIG
 15 15  0  0  0  0  0  0  0  0999 V2000
   22.2850    3.5020   26.1800 C   0  0  0  0  0  0  0  0  0  0  0  0
   22.2690    4.3120   26.9010 H   0  0  0  0  0  0  0  0  0  0  0  0
   21.0570    3.1720   25.7040 N   0  0  0  0  0  0  0  0  0  0  0  0
   22.1130    1.4300   24.4100 C   0  0  0  0  0  0  0  0  0  0  0  0
   22.0120    0.6080   23.7100 H   0  0  0  0  0  0  0  0  0  0  0  0
   23.4590    2.8620   25.8100 C   0  0  0  0  0  0  0  0  0  0  0  0
   24.7880    3.2420   26.3390 C   0  0  0  0  0  0  0  0  0  0  0  0
   21.0020    2.1440   24.8290 C   0  0  0  0  0  0  0  0  0  0  0  0
   20.0080    1.8980   24.4640 H   0  0  0  0  0  0  0  0  0  0  0  0
   25.7380    2.4700   26.2780 O   0  0  0  0  0  0  0  0  0  0  0  0
   23.3600    1.7950   24.9130 C   0  0  0  0  0  0  0  0  0  0  0  0
   24.2500    1.2510   24.6040 H   0  0  0  0  0  0  0  0  0  0  0  0
   24.9450    4.4900   26.8750 N   0  0  0  0  0  0  0  0  0  0  0  0
   25.8610    4.7140   27.2440 H   0  0  0  0  0  0  0  0  0  0  0  0
   24.2330    5.2030   26.9220 H   0  0  0  0  0  0  0  0  0  0  0  0
  1  2  1  0  0  0  0
  1  3  1  0  0  0  0
  1  6  2  0  0  0  0
  3  8  2  0  0  0  0
  4  5  1  0  0  0  0
  4  8  1  0  0  0  0
  4 11  2  0  0  0  0
  6  7  1  0  0  0  0
  6 11  1  0  0  0  0
  7 10  2  0  0  0  0
  7 13  1  0  0  0  0
  8  9  1  0  0  0  0
 11 12  1  0  0  0  0
 13 14  1  0  0  0  0
 13 15  1  0  0  0  0
M  END
$$$$
B10a_2_pandda-model-coot-0.pdb LIG
  MOE2024           3D
B10a_2_pandda-model-coot-0.pdb LIG
 16 16  0  0  0  0  0  0  0  0999 V2000
   25.8940    2.5410   26.2490 O   0  0  0  0  0  0  0  0  0  0  0  0
   25.4610    1.7160   25.9770 H   0  0  0  0  0  0  0  0  0  0  0  0
   23.2030    2.0130   25.0460 C   0  0  0  0  0  0  0  0  0  0  0  0
   23.9990    1.4660   24.5710 H   0  0  0  0  0  0  0  0  0  0  0  0
   20.8470    2.3650   25.3080 C   0  0  0  0  0  0  0  0  0  0  0  0
   19.8310    2.1050   25.0650 H   0  0  0  0  0  0  0  0  0  0  0  0
   25.2770    4.5920   26.7450 O   0  0  0  0  0  0  0  0  0  0  0  0
   26.2300    4.4630   26.8850 H   0  0  0  0  0  0  0  0  0  0  0  0
   21.8990    1.6770   24.7330 C   0  0  0  0  0  0  0  0  0  0  0  0
   21.6980    0.8800   24.0380 H   0  0  0  0  0  0  0  0  0  0  0  0
   22.4120    3.7250   26.5050 C   0  0  0  0  0  0  0  0  0  0  0  0
   22.5980    4.5320   27.1960 H   0  0  0  0  0  0  0  0  0  0  0  0
   21.1070    3.3930   26.1940 C   0  0  0  0  0  0  0  0  0  0  0  0
   20.2930    3.9360   26.6420 H   0  0  0  0  0  0  0  0  0  0  0  0
   24.9100    3.4100   26.3120 B   0  0  0  0  0  0  0  0  0  0  0  0
   23.4910    3.0410   25.9470 C   0  0  0  0  0  0  0  0  0  0  0  0
  1  2  1  0  0  0  0
  1 15  1  0  0  0  0
  3  4  1  0  0  0  0
  3  9  1  0  0  0  0
  3 16  2  0  0  0  0
  5  6  1  0  0  0  0
  5  9  2  0  0  0  0
  5 13  1  0  0  0  0
  7  8  1  0  0  0  0
  7 15  1  0  0  0  0
  9 10  1  0  0  0  0
 11 12  1  0  0  0  0
 11 13  2  0  0  0  0
 11 16  1  0  0  0  0
 13 14  1  0  0  0  0
 15 16  1  0  0  0  0
M  END
$$$$
C02a_2a-pandda-model-coot-0.pdb LIG
  MOE2024           3D
C02a_2a-pandda-model-coot-0.pdb LIG
 18 18  0  0  0  0  0  0  0  0999 V2000
   19.3890    0.5240   25.2370 C   0  0  0  0  0  0  0  0  0  0  0  0
   18.2570    0.1100   25.8240 F   0  0  0  0  0  0  0  0  0  0  0  0
   22.9030    1.7680   23.4800 F   0  0  0  0  0  0  0  0  0  0  0  0
   19.3790   -1.3830   23.8570 F   0  0  0  0  0  0  0  0  0  0  0  0
   21.7410    1.3800   24.0260 C   0  0  0  0  0  0  0  0  0  0  0  0
   21.1510    0.1770   23.6070 C   0  0  0  0  0  0  0  0  0  0  0  0
   22.7550   -0.2550   21.8940 C   0  0  0  0  0  0  0  0  0  0  0  0
   22.9400   -1.0060   21.1200 H   0  0  0  0  0  0  0  0  0  0  0  0
   23.6450   -0.2150   22.5290 H   0  0  0  0  0  0  0  0  0  0  0  0
   22.5730    0.6990   21.3880 H   0  0  0  0  0  0  0  0  0  0  0  0
   22.4250    4.1290   24.6210 O   0  5  0  0  0  0  0  0  0  0  0  0
   21.1580    2.1650   25.0320 C   0  0  0  0  0  0  0  0  0  0  0  0
   21.5350    3.8060   26.6760 O   0  0  0  0  0  0  0  0  0  0  0  0
   21.7660    3.4630   25.4740 C   0  0  0  0  0  0  0  0  0  0  0  0
   19.9720    1.7150   25.6420 C   0  0  0  0  0  0  0  0  0  0  0  0
   19.5120    2.3040   26.4330 H   0  0  0  0  0  0  0  0  0  0  0  0
   21.6170   -0.6740   22.6370 O   0  0  0  0  0  0  0  0  0  0  0  0
   19.9690   -0.2350   24.2300 C   0  0  0  0  0  0  0  0  0  0  0  0
  1  2  1  0  0  0  0
  1 15  2  0  0  0  0
  1 18  1  0  0  0  0
  3  5  1  0  0  0  0
  4 18  1  0  0  0  0
  5  6  1  0  0  0  0
  5 12  2  0  0  0  0
  6 17  1  0  0  0  0
  6 18  2  0  0  0  0
  7  8  1  0  0  0  0
  7  9  1  0  0  0  0
  7 10  1  0  0  0  0
  7 17  1  0  0  0  0
 11 14  1  0  0  0  0
 12 14  1  0  0  0  0
 12 15  1  0  0  0  0
 13 14  2  0  0  0  0
 15 16  1  0  0  0  0
M  CHG  1  11  -1
M  END
$$$$
C04a_2_pandda-model-coot-0.pdb LIG
  MOE2024           3D
C04a_2_pandda-model-coot-0.pdb LIG
 18 18  0  0  0  0  0  0  0  0999 V2000
   22.9260    3.3230   26.5860 N   0  0  0  0  0  0  0  0  0  0  0  0
   24.5290    4.3810   27.9660 N   0  0  0  0  0  0  0  0  0  0  0  0
   25.5240    4.4970   28.1320 H   0  0  0  0  0  0  0  0  0  0  0  0
   22.6890    2.5080   25.5440 C   0  0  0  0  0  0  0  0  0  0  0  0
   24.9540    2.1950   25.1920 C   0  0  0  0  0  0  0  0  0  0  0  0
   25.8100    1.7730   24.6730 H   0  0  0  0  0  0  0  0  0  0  0  0
   23.5510    5.0110   28.7500 N   0  0  0  0  0  0  0  0  0  0  0  0
   22.9270    4.2910   29.1280 H   0  0  0  0  0  0  0  0  0  0  0  0
   22.9420    5.5550   28.1310 H   0  0  0  0  0  0  0  0  0  0  0  0
   25.2490    3.0030   26.2270 N   0  0  0  0  0  0  0  0  0  0  0  0
   24.2160    3.5430   26.8930 C   0  0  0  0  0  0  0  0  0  0  0  0
   23.6740    1.9070   24.8010 C   0  0  0  0  0  0  0  0  0  0  0  0
   23.4520    1.2570   23.9680 H   0  0  0  0  0  0  0  0  0  0  0  0
   20.4170    2.8930   25.9650 C   0  0  0  0  0  0  0  0  0  0  0  0
   19.4280    2.6180   25.5840 H   0  0  0  0  0  0  0  0  0  0  0  0
   20.5120    3.9820   25.8870 H   0  0  0  0  0  0  0  0  0  0  0  0
   20.4750    2.5660   27.0090 H   0  0  0  0  0  0  0  0  0  0  0  0
   21.3900    2.2320   25.1630 O   0  0  0  0  0  0  0  0  0  0  0  0
  1  4  1  0  0  0  0
  1 11  2  0  0  0  0
  2  3  1  0  0  0  0
  2  7  1  0  0  0  0
  2 11  1  0  0  0  0
  4 12  2  0  0  0  0
  4 18  1  0  0  0  0
  5  6  1  0  0  0  0
  5 10  2  0  0  0  0
  5 12  1  0  0  0  0
  7  8  1  0  0  0  0
  7  9  1  0  0  0  0
 10 11  1  0  0  0  0
 12 13  1  0  0  0  0
 14 15  1  0  0  0  0
 14 16  1  0  0  0  0
 14 17  1  0  0  0  0
 14 18  1  0  0  0  0
M  END
$$$$
E11a_2_pandda-model-coot-0.pdb LIG
  MOE2024           3D
E11a_2_pandda-model-coot-0.pdb LIG
 25 26  0  0  0  0  0  0  0  0999 V2000
   25.0170    2.1210   25.8540 N   0  0  0  0  0  0  0  0  0  0  0  0
   23.7260    2.3200   26.0220 C   0  0  0  0  0  0  0  0  0  0  0  0
   24.1220    3.6410   28.0360 C   0  0  0  0  0  0  0  0  0  0  0  0
   24.3750    2.9270   28.8280 H   0  0  0  0  0  0  0  0  0  0  0  0
   25.0530    3.9650   27.5540 H   0  0  0  0  0  0  0  0  0  0  0  0
   24.1560    1.0810   23.9480 C   0  0  0  0  0  0  0  0  0  0  0  0
   22.2080    4.5950   29.3240 O   0  0  0  0  0  0  0  0  0  0  0  0
   21.7830    3.1250   27.3570 C   0  0  0  0  0  0  0  0  0  0  0  0
   21.3820    3.9500   26.7580 H   0  0  0  0  0  0  0  0  0  0  0  0
   21.2370    2.2100   27.1030 H   0  0  0  0  0  0  0  0  0  0  0  0
   23.4400    4.8770   28.6420 C   0  0  0  0  0  0  0  0  0  0  0  0
   23.2180    5.6090   27.8560 H   0  0  0  0  0  0  0  0  0  0  0  0
   24.1080    5.3630   29.3600 H   0  0  0  0  0  0  0  0  0  0  0  0
   25.2650    1.4210   24.6910 C   0  0  0  0  0  0  0  0  0  0  0  0
   26.2870    1.1810   24.4240 H   0  0  0  0  0  0  0  0  0  0  0  0
   24.0400    0.3450   22.6640 C   0  0  0  0  0  0  0  0  0  0  0  0
   23.5270    0.9490   21.9080 H   0  0  0  0  0  0  0  0  0  0  0  0
   23.5040   -0.6000   22.8010 H   0  0  0  0  0  0  0  0  0  0  0  0
   21.5520    3.4110   28.8510 C   0  0  0  0  0  0  0  0  0  0  0  0
   20.4820    3.5260   29.0510 H   0  0  0  0  0  0  0  0  0  0  0  0
   21.9080    2.5700   29.4580 H   0  0  0  0  0  0  0  0  0  0  0  0
   22.7560    1.6570   24.7460 S   0  0  0  0  0  0  0  0  0  0  0  0
   23.2130    2.9940   27.0870 N   0  0  0  0  0  0  0  0  0  0  0  0
   25.3510    0.0570   22.1960 O   0  0  0  0  0  0  0  0  0  0  0  0
   25.2470   -0.4120   21.3510 H   0  0  0  0  0  0  0  0  0  0  0  0
  1  2  2  0  0  0  0
  1 14  1  0  0  0  0
  2 22  1  0  0  0  0
  2 23  1  0  0  0  0
  3  4  1  0  0  0  0
  3  5  1  0  0  0  0
  3 11  1  0  0  0  0
  3 23  1  0  0  0  0
  6 14  2  0  0  0  0
  6 16  1  0  0  0  0
  6 22  1  0  0  0  0
  7 11  1  0  0  0  0
  7 19  1  0  0  0  0
  8  9  1  0  0  0  0
  8 10  1  0  0  0  0
  8 19  1  0  0  0  0
  8 23  1  0  0  0  0
 11 12  1  0  0  0  0
 11 13  1  0  0  0  0
 14 15  1  0  0  0  0
 16 17  1  0  0  0  0
 16 18  1  0  0  0  0
 16 24  1  0  0  0  0
 19 20  1  0  0  0  0
 19 21  1  0  0  0  0
 24 25  1  0  0  0  0
M  END
$$$$
En140b_1-FUPs_NADPH-site_refine_76.pdb LIG
  MOE2024           3D
En140b_1-FUPs_NADPH-site_refine_76.pdb LIG
 18 18  0  0  0  0  0  0  0  0999 V2000
   20.0630   -0.7030   24.1200 Cl  0  0  0  0  0  0  0  0  0  0  0  0
   24.8370    3.8840   27.2100 N   0  0  0  0  0  0  0  0  0  0  0  0
   25.6950    4.3780   27.4160 H   0  0  0  0  0  0  0  0  0  0  0  0
   24.0110    4.1030   27.7410 H   0  0  0  0  0  0  0  0  0  0  0  0
   25.9460    2.7650   25.6280 O   0  0  0  0  0  0  0  0  0  0  0  0
   23.9240   -0.1900   23.2600 C   0  0  0  0  0  0  0  0  0  0  0  0
   24.6590   -0.5960   22.5690 H   0  0  0  0  0  0  0  0  0  0  0  0
   22.0590    0.8640   25.0430 C   0  0  0  0  0  0  0  0  0  0  0  0
   21.3150    1.2600   25.7280 H   0  0  0  0  0  0  0  0  0  0  0  0
   23.6840    2.3430   26.0090 N   0  0  0  0  0  0  0  0  0  0  0  0
   22.9310    2.6480   26.6050 H   0  0  0  0  0  0  0  0  0  0  0  0
   24.8910    2.9560   26.2140 C   0  0  0  0  0  0  0  0  0  0  0  0
   21.6860   -0.1290   24.1350 C   0  0  0  0  0  0  0  0  0  0  0  0
   23.3760    1.3400   25.0660 C   0  0  0  0  0  0  0  0  0  0  0  0
   24.3030    0.8050   24.1680 C   0  0  0  0  0  0  0  0  0  0  0  0
   25.3360    1.1420   24.1480 H   0  0  0  0  0  0  0  0  0  0  0  0
   22.6130   -0.6590   23.2430 C   0  0  0  0  0  0  0  0  0  0  0  0
   22.3240   -1.4320   22.5370 H   0  0  0  0  0  0  0  0  0  0  0  0
  1 13  1  0  0  0  0
  2  3  1  0  0  0  0
  2  4  1  0  0  0  0
  2 12  1  0  0  0  0
  5 12  2  0  0  0  0
  6  7  1  0  0  0  0
  6 15  2  0  0  0  0
  6 17  1  0  0  0  0
  8  9  1  0  0  0  0
  8 13  1  0  0  0  0
  8 14  2  0  0  0  0
 10 11  1  0  0  0  0
 10 12  1  0  0  0  0
 10 14  1  0  0  0  0
 13 17  2  0  0  0  0
 14 15  1  0  0  0  0
 15 16  1  0  0  0  0
 17 18  1  0  0  0  0
M  END
$$$$
En182a_1-FUPs_NADPH-site_refine_86.pdb LIG
  MOE2024           3D
En182a_1-FUPs_NADPH-site_refine_86.pdb LIG
 12 12  0  0  0  0  0  0  0  0999 V2000
   22.8580    1.5360   24.9080 S   0  0  0  0  0  0  0  0  0  0  0  0
   20.8990    2.6280   26.1780 N   0  0  0  0  0  0  0  0  0  0  0  0
   23.2350    2.8000   26.0150 C   0  0  0  0  0  0  0  0  0  0  0  0
   24.6080    3.2110   26.2020 C   0  0  0  0  0  0  0  0  0  0  0  0
   25.5810    2.7170   25.6380 O   0  0  0  0  0  0  0  0  0  0  0  0
   22.0620    3.2510   26.5920 C   0  0  0  0  0  0  0  0  0  0  0  0
   21.9820    4.0390   27.3290 H   0  0  0  0  0  0  0  0  0  0  0  0
   24.8250    4.2380   27.0820 N   0  0  0  0  0  0  0  0  0  0  0  0
   25.7850    4.5270   27.2140 H   0  0  0  0  0  0  0  0  0  0  0  0
   24.1030    4.7170   27.5970 H   0  0  0  0  0  0  0  0  0  0  0  0
   21.1980    1.7070   25.2900 C   0  0  0  0  0  0  0  0  0  0  0  0
   20.4440    1.0870   24.8240 H   0  0  0  0  0  0  0  0  0  0  0  0
  1  3  1  0  0  0  0
  1 11  1  0  0  0  0
  2  6  1  0  0  0  0
  2 11  2  0  0  0  0
  3  4  1  0  0  0  0
  3  6  2  0  0  0  0
  4  5  2  0  0  0  0
  4  8  1  0  0  0  0
  6  7  1  0  0  0  0
  8  9  1  0  0  0  0
  8 10  1  0  0  0  0
 11 12  1  0  0  0  0
M  END
$$$$
En241b_1-FUPs_NADPH-site_refine_134.pdb LIG
  MOE2024           3D
En241b_1-FUPs_NADPH-site_refine_134.pdb LIG
 24 25  0  0  0  0  0  0  0  0999 V2000
   24.1330    3.3310   27.9890 C   0  0  0  0  0  0  0  0  0  0  0  0
   22.5060    0.5240   24.6010 N   0  0  0  0  0  0  0  0  0  0  0  0
   23.4760    0.2720   24.7120 H   0  0  0  0  0  0  0  0  0  0  0  0
   20.3770   -1.3360   22.1150 C   0  0  0  0  0  0  0  0  0  0  0  0
   19.5430   -1.6610   21.5100 H   0  0  0  0  0  0  0  0  0  0  0  0
   20.2320   -0.0500   23.2370 S   0  0  0  0  0  0  0  0  0  0  0  0
   21.9710    1.5410   25.3610 C   0  0  0  0  0  0  0  0  0  0  0  0
   22.5510    2.7120   27.7700 S   0  0  0  0  0  0  0  0  0  0  0  0
   22.9650    2.2230   26.1750 C   0  0  0  0  0  0  0  0  0  0  0  0
   24.2690    2.6080   25.8970 C   0  0  0  0  0  0  0  0  0  0  0  0
   25.0140    2.4710   24.6150 C   0  0  0  0  0  0  0  0  0  0  0  0
   24.3540    2.6300   23.7560 H   0  0  0  0  0  0  0  0  0  0  0  0
   25.4600    1.4750   24.5390 H   0  0  0  0  0  0  0  0  0  0  0  0
   25.8200    3.2090   24.5560 H   0  0  0  0  0  0  0  0  0  0  0  0
   20.7830    1.8450   25.3980 O   0  0  0  0  0  0  0  0  0  0  0  0
   21.8670   -0.2490   23.6690 C   0  0  0  0  0  0  0  0  0  0  0  0
   22.5170   -1.1960   23.0320 N   0  0  0  0  0  0  0  0  0  0  0  0
   24.9330    3.2140   26.9530 N   0  0  0  0  0  0  0  0  0  0  0  0
   21.6650   -1.8240   22.1440 C   0  0  0  0  0  0  0  0  0  0  0  0
   22.0370   -2.6400   21.5360 H   0  0  0  0  0  0  0  0  0  0  0  0
   24.5190    3.9520   29.2840 C   0  0  0  0  0  0  0  0  0  0  0  0
   23.8980    4.8280   29.4960 H   0  0  0  0  0  0  0  0  0  0  0  0
   25.5640    4.2800   29.2550 H   0  0  0  0  0  0  0  0  0  0  0  0
   24.4130    3.2380   30.1070 H   0  0  0  0  0  0  0  0  0  0  0  0
  1  8  1  0  0  0  0
  1 18  2  0  0  0  0
  1 21  1  0  0  0  0
  2  3  1  0  0  0  0
  2  7  1  0  0  0  0
  2 16  1  0  0  0  0
  4  5  1  0  0  0  0
  4  6  1  0  0  0  0
  4 19  2  0  0  0  0
  6 16  1  0  0  0  0
  7  9  1  0  0  0  0
  7 15  2  0  0  0  0
  8  9  1  0  0  0  0
  9 10  2  0  0  0  0
 10 11  1  0  0  0  0
 10 18  1  0  0  0  0
 11 12  1  0  0  0  0
 11 13  1  0  0  0  0
 11 14  1  0  0  0  0
 16 17  2  0  0  0  0
 17 19  1  0  0  0  0
 19 20  1  0  0  0  0
 21 22  1  0  0  0  0
 21 23  1  0  0  0  0
 21 24  1  0  0  0  0
M  END
$$$$
En281b_2-FUPs_NADPH-site_refine_96.pdb LIG
  MOE2024           3D
En281b_2-FUPs_NADPH-site_refine_96.pdb LIG
 23 23  0  0  0  0  0  0  0  0999 V2000
   20.4500   -2.1370   23.4290 O   0  0  0  0  0  0  0  0  0  0  0  0
   24.8720    1.1210   24.7850 C   0  0  0  0  0  0  0  0  0  0  0  0
   25.6140    0.3960   24.4710 H   0  0  0  0  0  0  0  0  0  0  0  0
   20.7560   -0.7400   21.3360 O   0  0  0  0  0  0  0  0  0  0  0  0
   23.5210    1.0320   24.4690 C   0  0  0  0  0  0  0  0  0  0  0  0
   20.5610   -0.8450   22.7720 S   0  0  0  0  0  0  0  0  0  0  0  0
   22.7290    2.3970   25.1760 S   0  0  0  0  0  0  0  0  0  0  0  0
   23.5570   -0.8080   23.2690 O   0  5  0  0  0  0  0  0  0  0  0  0
   22.7590    0.0410   23.7000 C   0  0  0  0  0  0  0  0  0  0  0  0
   18.9940   -0.0640   23.0660 C   0  0  0  0  0  0  0  0  0  0  0  0
   18.2200   -0.6490   22.5640 H   0  0  0  0  0  0  0  0  0  0  0  0
   19.0170    0.9490   22.6570 H   0  0  0  0  0  0  0  0  0  0  0  0
   18.8020   -0.0410   24.1410 H   0  0  0  0  0  0  0  0  0  0  0  0
   24.2790    4.2160   26.6100 C   0  0  0  0  0  0  0  0  0  0  0  0
   25.2330    4.7190   26.4120 H   0  0  0  0  0  0  0  0  0  0  0  0
   23.4890    4.9110   26.3010 H   0  0  0  0  0  0  0  0  0  0  0  0
   25.2740    2.2100   25.5460 N   0  0  0  0  0  0  0  0  0  0  0  0
   21.4790    0.1950   23.5990 N   0  0  0  0  0  0  0  0  0  0  0  0
   24.1620    3.9400   28.1010 C   0  0  0  0  0  0  0  0  0  0  0  0
   24.9630    3.2760   28.4450 H   0  0  0  0  0  0  0  0  0  0  0  0
   23.2050    3.4650   28.3440 H   0  0  0  0  0  0  0  0  0  0  0  0
   24.2300    4.8750   28.6660 H   0  0  0  0  0  0  0  0  0  0  0  0
   24.2230    2.9530   25.8110 C   0  0  0  0  0  0  0  0  0  0  0  0
  1  6  2  0  0  0  0
  2  3  1  0  0  0  0
  2  5  2  0  0  0  0
  2 17  1  0  0  0  0
  4  6  2  0  0  0  0
  5  7  1  0  0  0  0
  5  9  1  0  0  0  0
  6 10  1  0  0  0  0
  6 18  1  0  0  0  0
  7 23  1  0  0  0  0
  8  9  1  0  0  0  0
  9 18  2  0  0  0  0
 10 11  1  0  0  0  0
 10 12  1  0  0  0  0
 10 13  1  0  0  0  0
 14 15  1  0  0  0  0
 14 16  1  0  0  0  0
 14 19  1  0  0  0  0
 14 23  1  0  0  0  0
 17 23  2  0  0  0  0
 19 20  1  0  0  0  0
 19 21  1  0  0  0  0
 19 22  1  0  0  0  0
M  CHG  1   8  -1
M  END
$$$$
En294a_1-FUPs_NADPH-site_refine_127.pdb LIG
  MOE2024           3D
En294a_1-FUPs_NADPH-site_refine_127.pdb LIG
 32 33  0  0  0  0  0  0  0  0999 V2000
   17.0610   -0.7520   22.9300 C   0  0  0  0  0  0  0  0  0  0  0  0
   16.2360   -1.2660   22.4490 H   0  0  0  0  0  0  0  0  0  0  0  0
   16.8580    0.3870   23.6990 C   0  0  0  0  0  0  0  0  0  0  0  0
   19.2310    0.5500   24.1640 C   0  0  0  0  0  0  0  0  0  0  0  0
   20.2570    1.2620   24.8220 N   0  0  0  0  0  0  0  0  0  0  0  0
   19.9570    2.0720   25.3480 H   0  0  0  0  0  0  0  0  0  0  0  0
   21.7440    3.2740   26.4590 S   0  0  0  0  0  0  0  0  0  0  0  0
   24.7530    0.8620   25.3640 C   0  0  0  0  0  0  0  0  0  0  0  0
   24.4770   -0.1420   25.7010 H   0  0  0  0  0  0  0  0  0  0  0  0
   25.7650    1.0720   25.7270 H   0  0  0  0  0  0  0  0  0  0  0  0
   24.7790    0.8760   24.2700 H   0  0  0  0  0  0  0  0  0  0  0  0
   23.7870    1.8730   25.8790 C   0  0  0  0  0  0  0  0  0  0  0  0
   22.4170    1.9160   25.6410 C   0  0  0  0  0  0  0  0  0  0  0  0
   24.2770    2.8930   26.6890 N   0  0  0  0  0  0  0  0  0  0  0  0
   15.6110    0.9090   23.8810 O   0  0  0  0  0  0  0  0  0  0  0  0
   14.9690    0.3560   23.4060 H   0  0  0  0  0  0  0  0  0  0  0  0
   23.5070    4.8770   27.9280 C   0  0  0  0  0  0  0  0  0  0  0  0
   22.9210    4.8140   28.8490 H   0  0  0  0  0  0  0  0  0  0  0  0
   23.2810    5.8090   27.4010 H   0  0  0  0  0  0  0  0  0  0  0  0
   17.9260    1.0370   24.3120 C   0  0  0  0  0  0  0  0  0  0  0  0
   17.7190    1.9240   24.9040 H   0  0  0  0  0  0  0  0  0  0  0  0
   22.1410    0.0540   24.2450 O   0  0  0  0  0  0  0  0  0  0  0  0
   23.2920    3.6860   27.0500 C   0  0  0  0  0  0  0  0  0  0  0  0
   24.9380    4.9600   28.3400 N   0  3  0  0  0  0  0  0  0  0  0  0
   25.5290    4.9650   27.4970 H   0  0  0  0  0  0  0  0  0  0  0  0
   25.2000    4.0990   28.8380 H   0  0  0  0  0  0  0  0  0  0  0  0
   25.1560    5.7750   28.9200 H   0  0  0  0  0  0  0  0  0  0  0  0
   21.6160    0.9900   24.8390 C   0  0  0  0  0  0  0  0  0  0  0  0
   19.4360   -0.5950   23.3910 C   0  0  0  0  0  0  0  0  0  0  0  0
   20.4250   -1.0170   23.2410 H   0  0  0  0  0  0  0  0  0  0  0  0
   18.3560   -1.2420   22.7780 C   0  0  0  0  0  0  0  0  0  0  0  0
   18.5340   -2.1330   22.1800 H   0  0  0  0  0  0  0  0  0  0  0  0
  1  2  1  0  0  0  0
  1  3  1  0  0  0  0
  1 31  2  0  0  0  0
  3 15  1  0  0  0  0
  3 20  2  0  0  0  0
  4  5  1  0  0  0  0
  4 20  1  0  0  0  0
  4 29  2  0  0  0  0
  5  6  1  0  0  0  0
  5 28  1  0  0  0  0
  7 13  1  0  0  0  0
  7 23  1  0  0  0  0
  8  9  1  0  0  0  0
  8 10  1  0  0  0  0
  8 11  1  0  0  0  0
  8 12  1  0  0  0  0
 12 13  2  0  0  0  0
 12 14  1  0  0  0  0
 13 28  1  0  0  0  0
 14 23  2  0  0  0  0
 15 16  1  0  0  0  0
 17 18  1  0  0  0  0
 17 19  1  0  0  0  0
 17 23  1  0  0  0  0
 17 24  1  0  0  0  0
 20 21  1  0  0  0  0
 22 28  2  0  0  0  0
 24 25  1  0  0  0  0
 24 26  1  0  0  0  0
 24 27  1  0  0  0  0
 29 30  1  0  0  0  0
 29 31  1  0  0  0  0
 31 32  1  0  0  0  0
M  CHG  1  24   1
M  END
$$$$
En306a_1-FUPs_NADPH-site_refine_121.pdb LIG
  MOE2024           3D
En306a_1-FUPs_NADPH-site_refine_121.pdb LIG
 32 34  0  0  0  0  0  0  0  0999 V2000
   20.0750    3.0090   26.7620 S   0  0  0  0  0  0  0  0  0  0  0  0
   17.2570    5.0150   26.8980 C   0  0  0  0  0  0  0  0  0  0  0  0
   18.2550    6.9230   25.7920 C   0  0  0  0  0  0  0  0  0  0  0  0
   17.7990    7.7730   26.7980 C   0  0  0  0  0  0  0  0  0  0  0  0
   18.0070    8.8390   26.7590 H   0  0  0  0  0  0  0  0  0  0  0  0
   24.7630    2.3140   24.6060 C   0  0  0  0  0  0  0  0  0  0  0  0
   25.4120    1.8580   23.8640 H   0  0  0  0  0  0  0  0  0  0  0  0
   17.0620    7.2500   27.8580 C   0  0  0  0  0  0  0  0  0  0  0  0
   16.7000    7.9010   28.6500 H   0  0  0  0  0  0  0  0  0  0  0  0
   24.6040    3.6320   26.4760 C   0  0  0  0  0  0  0  0  0  0  0  0
   25.1320    4.2250   27.2180 H   0  0  0  0  0  0  0  0  0  0  0  0
   16.8060    5.8830   27.9050 C   0  0  0  0  0  0  0  0  0  0  0  0
   23.2230    3.5060   26.5150 C   0  0  0  0  0  0  0  0  0  0  0  0
   22.6780    4.0180   27.3000 H   0  0  0  0  0  0  0  0  0  0  0  0
   19.1520    7.5710   24.4740 Cl  0  0  0  0  0  0  0  0  0  0  0  0
   18.7180    2.4750   25.8650 C   0  0  0  0  0  0  0  0  0  0  0  0
   17.3710    2.5240   26.3790 C   0  0  0  0  0  0  0  0  0  0  0  0
   17.9780    5.5520   25.8290 C   0  0  0  0  0  0  0  0  0  0  0  0
   18.2930    4.9420   24.9890 H   0  0  0  0  0  0  0  0  0  0  0  0
   21.1260    2.5290   25.4780 C   0  0  0  0  0  0  0  0  0  0  0  0
   22.5870    2.7330   25.5380 C   0  0  0  0  0  0  0  0  0  0  0  0
   19.1500    1.8820   24.7000 C   0  0  0  0  0  0  0  0  0  0  0  0
   18.5090    1.3970   23.9720 H   0  0  0  0  0  0  0  0  0  0  0  0
   23.3910    2.1300   24.5610 C   0  0  0  0  0  0  0  0  0  0  0  0
   22.9560    1.5220   23.7730 H   0  0  0  0  0  0  0  0  0  0  0  0
   16.8620    3.6650   26.9660 N   0  0  0  0  0  0  0  0  0  0  0  0
   16.0300    3.4670   27.5120 H   0  0  0  0  0  0  0  0  0  0  0  0
   20.5090    1.9440   24.4670 N   0  0  0  0  0  0  0  0  0  0  0  0
   25.3870    3.0510   25.5450 N   0  0  0  0  0  0  0  0  0  0  0  0
   16.6350    1.5350   26.3560 O   0  0  0  0  0  0  0  0  0  0  0  0
   16.1290    5.4140   28.9980 O   0  0  0  0  0  0  0  0  0  0  0  0
   16.5100    4.5490   29.2250 H   0  0  0  0  0  0  0  0  0  0  0  0
  1 16  1  0  0  0  0
  1 20  1  0  0  0  0
  2 12  2  0  0  0  0
  2 18  1  0  0  0  0
  2 26  1  0  0  0  0
  3  4  1  0  0  0  0
  3 15  1  0  0  0  0
  3 18  2  0  0  0  0
  4  5  1  0  0  0  0
  4  8  2  0  0  0  0
  6  7  1  0  0  0  0
  6 24  2  0  0  0  0
  6 29  1  0  0  0  0
  8  9  1  0  0  0  0
  8 12  1  0  0  0  0
 10 11  1  0  0  0  0
 10 13  1  0  0  0  0
 10 29  2  0  0  0  0
 12 31  1  0  0  0  0
 13 14  1  0  0  0  0
 13 21  2  0  0  0  0
 16 17  1  0  0  0  0
 16 22  2  0  0  0  0
 17 26  1  0  0  0  0
 17 30  2  0  0  0  0
 18 19  1  0  0  0  0
 20 21  1  0  0  0  0
 20 28  2  0  0  0  0
 21 24  1  0  0  0  0
 22 23  1  0  0  0  0
 22 28  1  0  0  0  0
 24 25  1  0  0  0  0
 26 27  1  0  0  0  0
 31 32  1  0  0  0  0
M  END
$$$$
F08a_2_pandda-model-coot-0.pdb LIG
  MOE2024           3D
F08a_2_pandda-model-coot-0.pdb LIG
 22 22  0  0  0  0  0  0  0  0999 V2000
   22.2070    2.9840   25.3200 C   0  0  0  0  0  0  0  0  0  0  0  0
   21.3040    2.6090   24.8410 H   0  0  0  0  0  0  0  0  0  0  0  0
   23.4170    2.3340   25.0580 C   0  0  0  0  0  0  0  0  0  0  0  0
   23.4310    1.4770   24.3900 H   0  0  0  0  0  0  0  0  0  0  0  0
   24.5650    3.8980   26.4980 C   0  0  0  0  0  0  0  0  0  0  0  0
   25.4920    4.2490   26.9450 H   0  0  0  0  0  0  0  0  0  0  0  0
   25.7860    2.1960   25.4270 O   0  0  0  0  0  0  0  0  0  0  0  0
   25.6700    1.4730   24.7880 H   0  0  0  0  0  0  0  0  0  0  0  0
   22.1660    4.0970   26.1750 C   0  0  0  0  0  0  0  0  0  0  0  0
   19.8910    3.0620   28.0560 C   0  0  0  0  0  0  0  0  0  0  0  0
   19.4740    3.0000   29.0640 H   0  0  0  0  0  0  0  0  0  0  0  0
   20.7460    2.3890   27.9620 H   0  0  0  0  0  0  0  0  0  0  0  0
   19.1220    2.8420   27.3120 H   0  0  0  0  0  0  0  0  0  0  0  0
   24.5850    2.7970   25.6510 C   0  0  0  0  0  0  0  0  0  0  0  0
   20.8630    4.7760   26.4860 C   0  0  0  0  0  0  0  0  0  0  0  0
   20.0750    4.5090   25.7740 H   0  0  0  0  0  0  0  0  0  0  0  0
   20.9890    5.8640   26.4460 H   0  0  0  0  0  0  0  0  0  0  0  0
   23.3600    4.5500   26.7600 C   0  0  0  0  0  0  0  0  0  0  0  0
   23.3770    5.4200   27.4140 H   0  0  0  0  0  0  0  0  0  0  0  0
   20.3550    4.4600   27.8560 N   0  3  0  0  0  0  0  0  0  0  0  0
   21.0990    4.6640   28.5350 H   0  0  0  0  0  0  0  0  0  0  0  0
   19.5830    5.1030   28.0740 H   0  0  0  0  0  0  0  0  0  0  0  0
  1  2  1  0  0  0  0
  1  3  1  0  0  0  0
  1  9  2  0  0  0  0
  3  4  1  0  0  0  0
  3 14  2  0  0  0  0
  5  6  1  0  0  0  0
  5 14  1  0  0  0  0
  5 18  2  0  0  0  0
  7  8  1  0  0  0  0
  7 14  1  0  0  0  0
  9 15  1  0  0  0  0
  9 18  1  0  0  0  0
 10 11  1  0  0  0  0
 10 12  1  0  0  0  0
 10 13  1  0  0  0  0
 10 20  1  0  0  0  0
 15 16  1  0  0  0  0
 15 17  1  0  0  0  0
 15 20  1  0  0  0  0
 18 19  1  0  0  0  0
 20 21  1  0  0  0  0
 20 22  1  0  0  0  0
M  CHG  1  20   1
M  END
$$$$
WFZ016a.pdb LIG
  MOE2024           3D
WFZ016a.pdb LIG
 15 16  0  0  0  0  0  0  0  0999 V2000
   24.9290    2.2380   25.1070 O   0  0  0  0  0  0  0  0  0  0  0  0
   23.2070    3.2960   26.0620 C   0  0  0  0  0  0  0  0  0  0  0  0
   21.9110    3.6010   26.3490 N   0  0  0  0  0  0  0  0  0  0  0  0
   21.3160    1.8110   24.7890 C   0  0  0  0  0  0  0  0  0  0  0  0
   20.5160    1.2530   24.3110 H   0  0  0  0  0  0  0  0  0  0  0  0
   24.5430    4.8400   27.3940 N   0  0  0  0  0  0  0  0  0  0  0  0
   25.4440    5.1930   27.6890 H   0  0  0  0  0  0  0  0  0  0  0  0
   23.7200    5.2790   27.7920 H   0  0  0  0  0  0  0  0  0  0  0  0
   25.4810    3.2020   25.9440 N   0  0  0  0  0  0  0  0  0  0  0  0
   24.4440    3.8310   26.5110 C   0  0  0  0  0  0  0  0  0  0  0  0
   22.6500    1.5130   24.5060 C   0  0  0  0  0  0  0  0  0  0  0  0
   22.9470    0.7330   23.8180 H   0  0  0  0  0  0  0  0  0  0  0  0
   23.5740    2.2980   25.1810 C   0  0  0  0  0  0  0  0  0  0  0  0
   21.0120    2.8320   25.6890 C   0  0  0  0  0  0  0  0  0  0  0  0
   19.9720    3.0670   25.9110 H   0  0  0  0  0  0  0  0  0  0  0  0
  1  9  1  0  0  0  0
  1 13  1  0  0  0  0
  2  3  1  0  0  0  0
  2 10  1  0  0  0  0
  2 13  2  0  0  0  0
  3 14  2  0  0  0  0
  4  5  1  0  0  0  0
  4 11  2  0  0  0  0
  4 14  1  0  0  0  0
  6  7  1  0  0  0  0
  6  8  1  0  0  0  0
  6 10  1  0  0  0  0
  9 10  2  0  0  0  0
 11 12  1  0  0  0  0
 11 13  1  0  0  0  0
 14 15  1  0  0  0  0
M  END
$$$$
WFZ017a.pdb LIG
  MOE2024           3D
WFZ017a.pdb LIG
 20 21  0  0  0  0  0  0  0  0999 V2000
   28.1890   19.7020    9.9390 O   0  0  0  0  0  0  0  0  0  0  0  0
   27.9610   17.2670   12.6810 C   0  0  0  0  0  0  0  0  0  0  0  0
   25.7880   17.6410   11.7440 C   0  0  0  0  0  0  0  0  0  0  0  0
   24.7190   17.4580   11.7040 H   0  0  0  0  0  0  0  0  0  0  0  0
   27.6230   15.7710   14.3160 N   0  0  0  0  0  0  0  0  0  0  0  0
   28.5680   16.5400   13.6560 O   0  0  0  0  0  0  0  0  0  0  0  0
   28.5920   18.1550   11.8090 C   0  0  0  0  0  0  0  0  0  0  0  0
   29.6600   18.3120   11.8790 H   0  0  0  0  0  0  0  0  0  0  0  0
   25.2820   15.4960   14.0830 N   0  0  0  0  0  0  0  0  0  0  0  0
   24.4020   15.7090   13.6340 H   0  0  0  0  0  0  0  0  0  0  0  0
   25.2480   14.8250   14.8420 H   0  0  0  0  0  0  0  0  0  0  0  0
   27.7680   18.7980   10.8800 C   0  0  0  0  0  0  0  0  0  0  0  0
   26.6060   16.9900   12.6810 C   0  0  0  0  0  0  0  0  0  0  0  0
   26.3900   18.5420   10.8520 C   0  0  0  0  0  0  0  0  0  0  0  0
   25.7700   19.0550   10.1190 H   0  0  0  0  0  0  0  0  0  0  0  0
   29.5780   20.0100    9.9170 C   0  0  0  0  0  0  0  0  0  0  0  0
   29.7460   20.7380    9.1180 H   0  0  0  0  0  0  0  0  0  0  0  0
   30.1750   19.1210    9.6890 H   0  0  0  0  0  0  0  0  0  0  0  0
   29.8950   20.4690   10.8600 H   0  0  0  0  0  0  0  0  0  0  0  0
   26.4550   16.0450   13.7290 C   0  0  0  0  0  0  0  0  0  0  0  0
  1 12  1  0  0  0  0
  1 16  1  0  0  0  0
  2  6  1  0  0  0  0
  2  7  1  0  0  0  0
  2 13  2  0  0  0  0
  3  4  1  0  0  0  0
  3 13  1  0  0  0  0
  3 14  2  0  0  0  0
  5  6  1  0  0  0  0
  5 20  2  0  0  0  0
  7  8  1  0  0  0  0
  7 12  2  0  0  0  0
  9 10  1  0  0  0  0
  9 11  1  0  0  0  0
  9 20  1  0  0  0  0
 12 14  1  0  0  0  0
 13 20  1  0  0  0  0
 14 15  1  0  0  0  0
 16 17  1  0  0  0  0
 16 18  1  0  0  0  0
 16 19  1  0  0  0  0
M  END
$$$$
WFZ019a.pdb LIG
  MOE2024           3D
WFZ019a.pdb LIG
 16 17  0  0  0  0  0  0  0  0999 V2000
   22.9600   -0.3820   23.5000 Cl  0  0  0  0  0  0  0  0  0  0  0  0
   24.9870    1.6540   24.8220 O   0  0  0  0  0  0  0  0  0  0  0  0
   22.1270    2.9680   26.4760 C   0  0  0  0  0  0  0  0  0  0  0  0
   21.9130    3.7620   27.1860 H   0  0  0  0  0  0  0  0  0  0  0  0
   24.9840    4.3120   27.0580 N   0  0  0  0  0  0  0  0  0  0  0  0
   24.2780    4.7940   27.5970 H   0  0  0  0  0  0  0  0  0  0  0  0
   25.9340    4.6520   27.1620 H   0  0  0  0  0  0  0  0  0  0  0  0
   21.3560    1.1280   25.0770 C   0  0  0  0  0  0  0  0  0  0  0  0
   20.5330    0.5120   24.7180 H   0  0  0  0  0  0  0  0  0  0  0  0
   25.6600    2.6420   25.5230 N   0  0  0  0  0  0  0  0  0  0  0  0
   22.6560    0.8830   24.6210 C   0  0  0  0  0  0  0  0  0  0  0  0
   21.0930    2.1540   25.9900 C   0  0  0  0  0  0  0  0  0  0  0  0
   20.0730    2.3230   26.3290 H   0  0  0  0  0  0  0  0  0  0  0  0
   23.6610    1.7070   25.1210 C   0  0  0  0  0  0  0  0  0  0  0  0
   23.4400    2.7330   26.0260 C   0  0  0  0  0  0  0  0  0  0  0  0
   24.7310    3.2800   26.2380 C   0  0  0  0  0  0  0  0  0  0  0  0
  1 11  1  0  0  0  0
  2 10  1  0  0  0  0
  2 14  1  0  0  0  0
  3  4  1  0  0  0  0
  3 12  2  0  0  0  0
  3 15  1  0  0  0  0
  5  6  1  0  0  0  0
  5  7  1  0  0  0  0
  5 16  1  0  0  0  0
  8  9  1  0  0  0  0
  8 11  2  0  0  0  0
  8 12  1  0  0  0  0
 10 16  2  0  0  0  0
 11 14  1  0  0  0  0
 12 13  1  0  0  0  0
 14 15  2  0  0  0  0
 15 16  1  0  0  0  0
M  END
$$$$
WFZ020a.pdb LIG
  MOE2024           3D
WFZ020a.pdb LIG
 19 20  0  0  0  0  0  0  0  0999 V2000
   23.1560    1.8840   25.0630 C   0  0  0  0  0  0  0  0  0  0  0  0
   24.3950    1.4530   24.7060 O   0  0  0  0  0  0  0  0  0  0  0  0
   25.2500    3.9440   26.9710 N   0  0  0  0  0  0  0  0  0  0  0  0
   24.7310    4.5950   27.5450 H   0  0  0  0  0  0  0  0  0  0  0  0
   26.2600    3.9920   27.0380 H   0  0  0  0  0  0  0  0  0  0  0  0
   20.7770    1.9810   25.0930 C   0  0  0  0  0  0  0  0  0  0  0  0
   22.1030    3.4980   26.4900 C   0  0  0  0  0  0  0  0  0  0  0  0
   22.1490    4.3040   27.2150 H   0  0  0  0  0  0  0  0  0  0  0  0
   25.3530    2.1850   25.3890 N   0  0  0  0  0  0  0  0  0  0  0  0
   19.4260    1.5130   24.6310 C   0  0  0  0  0  0  0  0  0  0  0  0
   19.5100    0.6720   23.9340 H   0  0  0  0  0  0  0  0  0  0  0  0
   18.9020    2.3260   24.1180 H   0  0  0  0  0  0  0  0  0  0  0  0
   18.8290    1.1810   25.4860 H   0  0  0  0  0  0  0  0  0  0  0  0
   21.9440    1.3880   24.5860 C   0  0  0  0  0  0  0  0  0  0  0  0
   21.9200    0.5840   23.8590 H   0  0  0  0  0  0  0  0  0  0  0  0
   23.2750    2.9060   25.9860 C   0  0  0  0  0  0  0  0  0  0  0  0
   24.6770    3.0500   26.1500 C   0  0  0  0  0  0  0  0  0  0  0  0
   20.8640    3.0230   26.0320 C   0  0  0  0  0  0  0  0  0  0  0  0
   19.9530    3.4790   26.4180 H   0  0  0  0  0  0  0  0  0  0  0  0
  1  2  1  0  0  0  0
  1 14  2  0  0  0  0
  1 16  1  0  0  0  0
  2  9  1  0  0  0  0
  3  4  1  0  0  0  0
  3  5  1  0  0  0  0
  3 17  1  0  0  0  0
  6 10  1  0  0  0  0
  6 14  1  0  0  0  0
  6 18  2  0  0  0  0
  7  8  1  0  0  0  0
  7 16  2  0  0  0  0
  7 18  1  0  0  0  0
  9 17  2  0  0  0  0
 10 11  1  0  0  0  0
 10 12  1  0  0  0  0
 10 13  1  0  0  0  0
 14 15  1  0  0  0  0
 16 17  1  0  0  0  0
 18 19  1  0  0  0  0
M  END
$$$$
WFZ021a.pdb LIG
  MOE2024           3D
WFZ021a.pdb LIG
 16 17  0  0  0  0  0  0  0  0999 V2000
   24.3640    3.7890   26.6390 C   0  0  0  0  0  0  0  0  0  0  0  0
   24.9450    2.2110   25.2640 O   0  0  0  0  0  0  0  0  0  0  0  0
   25.4350    3.2050   26.0940 N   0  0  0  0  0  0  0  0  0  0  0  0
   20.5080    0.7470   24.1950 F   0  0  0  0  0  0  0  0  0  0  0  0
   23.1580    3.1970   26.1820 C   0  0  0  0  0  0  0  0  0  0  0  0
   21.3810    1.5370   24.8350 C   0  0  0  0  0  0  0  0  0  0  0  0
   24.4190    4.8090   27.5090 N   0  0  0  0  0  0  0  0  0  0  0  0
   23.6050    5.2480   27.9180 H   0  0  0  0  0  0  0  0  0  0  0  0
   25.3180    5.1820   27.7920 H   0  0  0  0  0  0  0  0  0  0  0  0
   21.7750    3.3670   26.3850 C   0  0  0  0  0  0  0  0  0  0  0  0
   21.3950    4.1310   27.0560 H   0  0  0  0  0  0  0  0  0  0  0  0
   22.7440    1.3480   24.6170 C   0  0  0  0  0  0  0  0  0  0  0  0
   23.1180    0.5840   23.9490 H   0  0  0  0  0  0  0  0  0  0  0  0
   23.5870    2.2050   25.3150 C   0  0  0  0  0  0  0  0  0  0  0  0
   20.8940    2.5200   25.6960 C   0  0  0  0  0  0  0  0  0  0  0  0
   19.8200    2.6230   25.8290 H   0  0  0  0  0  0  0  0  0  0  0  0
  1  3  2  0  0  0  0
  1  5  1  0  0  0  0
  1  7  1  0  0  0  0
  2  3  1  0  0  0  0
  2 14  1  0  0  0  0
  4  6  1  0  0  0  0
  5 10  1  0  0  0  0
  5 14  2  0  0  0  0
  6 12  2  0  0  0  0
  6 15  1  0  0  0  0
  7  8  1  0  0  0  0
  7  9  1  0  0  0  0
 10 11  1  0  0  0  0
 10 15  2  0  0  0  0
 12 13  1  0  0  0  0
 12 14  1  0  0  0  0
 15 16  1  0  0  0  0
M  END
$$$$
WFZ024a.pdb LIG
  MOE2024           3D
WFZ024a.pdb LIG
 16 17  0  0  0  0  0  0  0  0999 V2000
   21.1530    2.1000   25.7810 O   0  0  0  0  0  0  0  0  0  0  0  0
   22.0970   -0.1710   23.3270 N   0  0  0  0  0  0  0  0  0  0  0  0
   22.9790   -0.4690   22.9330 H   0  0  0  0  0  0  0  0  0  0  0  0
   21.2640   -0.6100   22.9500 H   0  0  0  0  0  0  0  0  0  0  0  0
   22.5020    2.2580   25.8190 C   0  0  0  0  0  0  0  0  0  0  0  0
   24.5990    3.1160   26.5160 C   0  0  0  0  0  0  0  0  0  0  0  0
   25.2000    3.7730   27.1430 H   0  0  0  0  0  0  0  0  0  0  0  0
   20.8250    1.1520   24.8240 N   0  0  0  0  0  0  0  0  0  0  0  0
   24.4900    1.4230   24.7640 C   0  0  0  0  0  0  0  0  0  0  0  0
   24.9900    0.7790   24.0480 H   0  0  0  0  0  0  0  0  0  0  0  0
   23.2060    3.1230   26.6530 C   0  0  0  0  0  0  0  0  0  0  0  0
   22.7000    3.7610   27.3660 H   0  0  0  0  0  0  0  0  0  0  0  0
   23.0880    1.4180   24.8890 C   0  0  0  0  0  0  0  0  0  0  0  0
   25.2320    2.2820   25.5890 C   0  0  0  0  0  0  0  0  0  0  0  0
   26.3170    2.2990   25.5050 H   0  0  0  0  0  0  0  0  0  0  0  0
   21.9850    0.7500   24.2970 C   0  0  0  0  0  0  0  0  0  0  0  0
  1  5  1  0  0  0  0
  1  8  1  0  0  0  0
  2  3  1  0  0  0  0
  2  4  1  0  0  0  0
  2 16  1  0  0  0  0
  5 11  2  0  0  0  0
  5 13  1  0  0  0  0
  6  7  1  0  0  0  0
  6 11  1  0  0  0  0
  6 14  2  0  0  0  0
  8 16  2  0  0  0  0
  9 10  1  0  0  0  0
  9 13  2  0  0  0  0
  9 14  1  0  0  0  0
 11 12  1  0  0  0  0
 13 16  1  0  0  0  0
 14 15  1  0  0  0  0
M  END
$$$$
WFZ025a.pdb LIG
  MOE2024           3D
WFZ025a.pdb LIG
 16 17  0  0  0  0  0  0  0  0999 V2000
   23.4710    1.9710   25.2020 C   0  0  0  0  0  0  0  0  0  0  0  0
   20.0570    0.4000   23.9580 Cl  0  0  0  0  0  0  0  0  0  0  0  0
   25.3680    2.9040   25.9440 N   0  0  0  0  0  0  0  0  0  0  0  0
   24.3310    3.5020   26.5360 C   0  0  0  0  0  0  0  0  0  0  0  0
   22.5850    1.1510   24.5100 C   0  0  0  0  0  0  0  0  0  0  0  0
   22.9340    0.3980   23.8160 H   0  0  0  0  0  0  0  0  0  0  0  0
   24.8270    1.9420   25.1080 O   0  0  0  0  0  0  0  0  0  0  0  0
   20.8000    2.3450   25.6730 C   0  0  0  0  0  0  0  0  0  0  0  0
   19.7370    2.4880   25.8560 H   0  0  0  0  0  0  0  0  0  0  0  0
   24.4390    4.4980   27.4280 N   0  0  0  0  0  0  0  0  0  0  0  0
   23.6500    4.9480   27.8730 H   0  0  0  0  0  0  0  0  0  0  0  0
   25.3560    4.8410   27.6910 H   0  0  0  0  0  0  0  0  0  0  0  0
   23.0960    2.9520   26.1040 C   0  0  0  0  0  0  0  0  0  0  0  0
   21.2300    1.3670   24.7710 C   0  0  0  0  0  0  0  0  0  0  0  0
   21.7260    3.1510   26.3540 C   0  0  0  0  0  0  0  0  0  0  0  0
   21.3870    3.9090   27.0540 H   0  0  0  0  0  0  0  0  0  0  0  0
  1  5  1  0  0  0  0
  1  7  1  0  0  0  0
  1 13  2  0  0  0  0
  2 14  1  0  0  0  0
  3  4  2  0  0  0  0
  3  7  1  0  0  0  0
  4 10  1  0  0  0  0
  4 13  1  0  0  0  0
  5  6  1  0  0  0  0
  5 14  2  0  0  0  0
  8  9  1  0  0  0  0
  8 14  1  0  0  0  0
  8 15  2  0  0  0  0
 10 11  1  0  0  0  0
 10 12  1  0  0  0  0
 13 15  1  0  0  0  0
 15 16  1  0  0  0  0
M  END
$$$$
WFZ026a.pdb LIG
  MOE2024           3D
WFZ026a.pdb LIG
 16 17  0  0  0  0  0  0  0  0999 V2000
   24.1840    3.4860   26.6060 C   0  0  0  0  0  0  0  0  0  0  0  0
   18.9350    2.8220   26.0170 Cl  0  0  0  0  0  0  0  0  0  0  0  0
   24.6000    2.0890   24.9960 O   0  0  0  0  0  0  0  0  0  0  0  0
   24.3420    4.3660   27.6060 N   0  0  0  0  0  0  0  0  0  0  0  0
   23.5780    4.7910   28.1150 H   0  0  0  0  0  0  0  0  0  0  0  0
   25.2760    4.6400   27.8920 H   0  0  0  0  0  0  0  0  0  0  0  0
   20.9710    1.6890   24.6550 C   0  0  0  0  0  0  0  0  0  0  0  0
   20.2040    1.1680   24.0850 H   0  0  0  0  0  0  0  0  0  0  0  0
   21.5660    3.2600   26.4300 C   0  0  0  0  0  0  0  0  0  0  0  0
   21.2720    3.9430   27.2190 H   0  0  0  0  0  0  0  0  0  0  0  0
   25.1900    2.9230   25.9310 N   0  0  0  0  0  0  0  0  0  0  0  0
   23.2490    2.1570   25.1170 C   0  0  0  0  0  0  0  0  0  0  0  0
   22.3180    1.4600   24.3490 C   0  0  0  0  0  0  0  0  0  0  0  0
   22.6250    0.7810   23.5630 H   0  0  0  0  0  0  0  0  0  0  0  0
   22.9230    3.0380   26.1340 C   0  0  0  0  0  0  0  0  0  0  0  0
   20.6050    2.5720   25.6760 C   0  0  0  0  0  0  0  0  0  0  0  0
  1  4  1  0  0  0  0
  1 11  2  0  0  0  0
  1 15  1  0  0  0  0
  2 16  1  0  0  0  0
  3 11  1  0  0  0  0
  3 12  1  0  0  0  0
  4  5  1  0  0  0  0
  4  6  1  0  0  0  0
  7  8  1  0  0  0  0
  7 13  2  0  0  0  0
  7 16  1  0  0  0  0
  9 10  1  0  0  0  0
  9 15  1  0  0  0  0
  9 16  2  0  0  0  0
 12 13  1  0  0  0  0
 12 15  2  0  0  0  0
 13 14  1  0  0  0  0
M  END
$$$$
