@<TRIPOS>MOLECULE
WFZ015a.pdb_HOH133
     3     2     1     0     1
SMALL
NO_CHARGES
****
Generated from the CSD

@<TRIPOS>ATOM
     1 O       23.1830  -1.4770  22.7980   O.3       1 HOH133   0.0000
     2 H1      23.8138  -0.9114  22.3526   H         1 HOH133   0.0000
     3 H2      23.3109  -2.3385  22.4009   H         1 HOH133   0.0000
@<TRIPOS>BOND
     1     1     2    1
     2     1     3    1
@<TRIPOS>SUBSTRUCTURE
     1 HOH133      1 GROUP             0 I     HOH     0  
@<TRIPOS>SET
CCDC_WATER STATIC ATOMS
3 1 2 3 
