@<TRIPOS>MOLECULE
WFZ015a.pdb_HOH207
     3     2     1     0     1
SMALL
NO_CHARGES
****
Generated from the CSD

@<TRIPOS>ATOM
     1 O       25.9630   0.4960  24.2730   O.3       1 HOH207   0.0000
     2 H1      26.4369   1.3127  24.1161   H         1 HOH207   0.0000
     3 H2      26.6331  -0.1155  24.5784   H         1 HOH207   0.0000
@<TRIPOS>BOND
     1     1     2    1
     2     1     3    1
@<TRIPOS>SUBSTRUCTURE
     1 HOH207      1 GROUP             0 I     HOH     0  
@<TRIPOS>SET
CCDC_WATER STATIC ATOMS
3 1 2 3 
