@<TRIPOS>MOLECULE
WFZ015a.pdb_HOH6
     3     2     1     0     1
SMALL
NO_CHARGES
****
Generated from the CSD

@<TRIPOS>ATOM
     1 O       20.0240  -1.4640  20.7720   O.3       1 HOH6   0.0000
     2 H1      19.6848  -0.6800  21.2039   H         1 HOH6   0.0000
     3 H2      20.8077  -1.6931  21.2715   H         1 HOH6   0.0000
@<TRIPOS>BOND
     1     1     2    1
     2     1     3    1
@<TRIPOS>SUBSTRUCTURE
     1 HOH6        1 GROUP             0 I     HOH     0  
@<TRIPOS>SET
CCDC_WATER STATIC ATOMS
3 1 2 3 
